121
Generated with con2xyz
Au   0.00000000000000   0.00000000000000   0.00000000000000
Au   2.54416875229998   1.46887654089999   0.00000000000000
Au   5.08833750469998   2.93775308170003   0.00000000000000
Au   17.80918164120005   4.40662962260003   0.00000000000000
Au   5.08833739360003   5.87550616350001   0.00000000000000
Au   7.63250622219999   7.34438283649999   0.00000000000000
Au   5.08833735879995   8.81325937739997   0.00000000000000
Au   7.63250611109994   10.28213591829997   0.00000000000000
Au   10.17667486340004   11.75101245910001   0.00000000000000
Au   5.08833761580002   0.00000000000000   0.00000000000000
Au   7.63250636810002   1.46887654089999   0.00000000000000
Au   10.17667527310003   2.93775308170003   0.00000000000000
Au   7.63250625699997   4.40662962260003   0.00000000000000
Au   10.17667500929995   5.87550616350001   0.00000000000000
Au   12.72084399070005   7.34438283649999   0.00000000000000
Au   10.17667497459997   8.81325937739997   0.00000000000000
Au   12.72084372689997   10.28213591829997   0.00000000000000
Au   15.26501263189999   11.75101245910001   0.00000000000000
Au   10.17667538419998   0.00000000000000   0.00000000000000
Au   12.72084413659996   1.46887654089999   0.00000000000000
Au   15.26501288890006   2.93775308170003   0.00000000000000
Au   12.72084402540003   4.40662962260003   0.00000000000000
Au   15.26501277780001   5.87550616350001   0.00000000000000
Au   17.80918160639997   7.34438283649999   0.00000000000000
Au   15.26501274300004   8.81325937739997   0.00000000000000
Au   17.80918149530002   10.28213591829997   0.00000000000000
Au   20.35335024770002   11.75101245910001   0.00000000000000
Au   1.69611253860000   0.00000000000000   2.39866529999993
Au   4.24028129090000   1.46887654089999   2.39866529999993
Au   1.69611242750007   2.93775308170003   2.39866529999993
Au   4.24028117980005   4.40662962260003   2.39866529999993
Au   6.78444993220005   5.87550616350001   2.39866529999993
Au   19.50529414499997   7.34438283649999   2.39866529999993
Au   6.78444989739995   8.81325937739997   2.39866529999993
Au   9.32861864969995   10.28213591829997   2.39866529999993
Au   6.78444978630002   11.75101245910001   2.39866529999993
Au   6.78445015440004   0.00000000000000   2.39866529999993
Au   9.32861905939994   1.46887654089999   2.39866529999993
Au   6.78445004329998   2.93775308170003   2.39866529999993
Au   9.32861879559998   4.40662962260003   2.39866529999993
Au   11.87278770060000   5.87550616350001   2.39866529999993
Au   9.32861876079999   7.34438283649999   2.39866529999993
Au   11.87278751319998   8.81325937739997   2.39866529999993
Au   14.41695641810000   10.28213591829997   2.39866529999993
Au   11.87278740200004   11.75101245910001   2.39866529999993
Au   11.87278792279998   0.00000000000000   2.39866529999993
Au   14.41695667509996   1.46887654089999   2.39866529999993
Au   11.87278781170005   2.93775308170003   2.39866529999993
Au   14.41695656400003   4.40662962260003   2.39866529999993
Au   16.96112531640003   5.87550616350001   2.39866529999993
Au   14.41695652929995   7.34438283649999   2.39866529999993
Au   16.96112528160004   8.81325937739997   2.39866529999993
Au   19.50529403390004   10.28213591829997   2.39866529999993
Au   16.96112517050000   11.75101245910001   2.39866529999993
Au   3.39222507720002   0.00000000000000   4.78616579999994
Au   16.11306921369998   1.46887654089999   4.78616579999994
Au   3.39222496609996   2.93775308170003   4.78616579999994
Au   5.93639371840007   4.40662962260003   4.78616579999994
Au   3.39222485500003   5.87550616350001   4.78616579999994
Au   5.93639368359997   7.34438283649999   4.78616579999994
Au   8.48056243599997   8.81325937739997   4.78616579999994
Au   21.20140657250004   10.28213591829997   4.78616579999994
Au   8.48056232490004   11.75101245910001   4.78616579999994
Au   8.48056284559996   0.00000000000000   4.78616579999994
Au   5.93639382950000   1.46887654089999   4.78616579999994
Au   8.48056258190000   2.93775308170003   4.78616579999994
Au   11.02473148680001   4.40662962260003   4.78616579999994
Au   8.48056247070005   5.87550616350001   4.78616579999994
Au   11.02473129940001   7.34438283649999   4.78616579999994
Au   13.56890020440002   8.81325937739997   4.78616579999994
Au   11.02473118829996   10.28213591829997   4.78616579999994
Au   13.56889994060006   11.75101245910001   4.78616579999994
Au   13.56890046140000   0.00000000000000   4.78616579999994
Au   11.02473159799996   1.46887654089999   4.78616579999994
Au   13.56890035030005   2.93775308170003   4.78616579999994
Au   16.11306910260005   4.40662962260003   4.78616579999994
Au   13.56890023920001   5.87550616350001   4.78616579999994
Au   16.11306906779995   7.34438283649999   4.78616579999994
Au   18.65723782019995   8.81325937739997   4.78616579999994
Au   16.11306895670002   10.28213591829997   4.78616579999994
Au   18.65723770910001   11.75101245910001   4.78616579999994
Au   0.00000000000000   0.00000000000000   7.21109999999997
Au   2.54416875229998   1.46887654089999   7.21109999999997
Au   5.08833750469998   2.93775308170003   7.21109999999997
Au   17.80918164120005   4.40662962260003   7.21109999999997
Au   5.08833739360003   5.87550616350001   7.21109999999997
Au   7.63250622219999   7.34438283649999   7.21109999999997
Au   5.08833735879995   8.81325937739997   7.21109999999997
Au   7.63250611109994   10.28213591829997   7.21109999999997
Au   10.17667486340004   11.75101245910001   7.21109999999997
Au   5.08833761580002   0.00000000000000   7.21109999999997
Au   7.63250636810002   1.46887654089999   7.21109999999997
Au   10.17667527310003   2.93775308170003   7.21109999999997
Au   7.63250625699997   4.40662962260003   7.21109999999997
Au   10.17667500929995   5.87550616350001   7.21109999999997
Au   12.72084399070005   7.34438283649999   7.21109999999997
Au   10.17667497459997   8.81325937739997   7.21109999999997
Au   12.72084372689997   10.28213591829997   7.21109999999997
Au   15.26501263189999   11.75101245910001   7.21109999999997
Au   10.17667538419998   0.00000000000000   7.21109999999997
Au   12.72084413659996   1.46887654089999   7.21109999999997
Au   15.26501288890006   2.93775308170003   7.21109999999997
Au   12.72084402540003   4.40662962260003   7.21109999999997
Au   15.26501277780001   5.87550616350001   7.21109999999997
Au   17.80918160639997   7.34438283649999   7.21109999999997
Au   15.26501274300004   8.81325937739997   7.21109999999997
Au   17.80918149530002   10.28213591829997   7.21109999999997
Au   20.35335024770002   11.75101245910001   7.21109999999997
C   10.16126342657973   5.87326387206419   9.34194538427868
O   10.46404946109667   7.08455791333452   9.83148199558269
O   9.92476147692286   4.89846564188423   10.01455302739044
Cs   13.44690188536876   7.57355751923716   10.86462732963891
O   12.75134796710869   5.29698444618106   12.85663640188326
O   10.80026667610999   7.11263455364682   12.29224238657055
O   13.52931205127131   10.24670368783347   12.58495771061049
H   11.90134904769006   5.73413497564177   12.65701750524495
H   12.66788652896606   4.44484198046892   12.54310015725990
H   9.99905833641643   7.03401580595125   12.82182158990883
H   10.41575823287482   7.06955542633009   10.94394502089024
H   12.89585714844727   10.87575636078978   12.21869279848626
H   13.46860947440815   10.37988017534026   13.54066568463372
