323
Generated with con2xyz
Au   0.00000000000000   0.00000000000000   0.00000000000000
Au   2.54416872725831   1.46887649954457   0.00000000000000
Au   5.08833745451663   2.93775299908914   0.00000000000000
Au   2.54416872731949   4.40662949863370   0.00000000000000
Au   5.08833745451663   5.87550599817827   0.00000000000000
Au   7.63250625810000   7.34438262992172   0.00000000000000
Au   5.08833753084169   8.81325912946629   0.00000000000000
Au   7.63250625810000   10.28213562901086   0.00000000000000
Au   10.17667498535831   11.75101212855543   0.00000000000000
Au   5.08833745451662   0.00000000000000   0.00000000000000
Au   7.63250618177494   1.46887649954457   0.00000000000000
Au   10.17667506168338   2.93775299908914   0.00000000000000
Au   7.63250618177494   4.40662949863370   0.00000000000000
Au   10.17667490903325   5.87550599817827   0.00000000000000
Au   12.72084386526675   7.34438262992172   0.00000000000000
Au   10.17667498535831   8.81325912946629   0.00000000000000
Au   12.72084371261663   10.28213562901086   0.00000000000000
Au   15.26501259252506   11.75101212855543   0.00000000000000
Au   10.17667506168338   0.00000000000000   0.00000000000000
Au   12.72084378894169   1.46887649954457   0.00000000000000
Au   15.26501251620000   2.93775299908914   0.00000000000000
Au   12.72084378894169   4.40662949863370   0.00000000000000
Au   15.26501251620000   5.87550599817827   0.00000000000000
Au   17.80918131978338   7.34438262992172   0.00000000000000
Au   15.26501259252506   8.81325912946629   0.00000000000000
Au   17.80918131978338   10.28213562901086   0.00000000000000
Au   20.35335004704169   11.75101212855543   0.00000000000000
Au   1.69611248483888   0.00000000000000   2.39866530000000
Au   4.24028121209719   1.46887649954457   2.39866530000000
Au   1.69611248483888   2.93775299908914   2.39866530000000
Au   4.24028121209719   4.40662949863370   2.39866530000000
Au   6.78444993935550   5.87550599817827   2.39866530000000
Au   4.24028128842225   7.34438262992172   2.39866530000000
Au   6.78445001568056   8.81325912946629   2.39866530000000
Au   9.32861874293888   10.28213562901086   2.39866530000000
Au   6.78445001568056   11.75101212855543   2.39866530000000
Au   6.78444993935550   0.00000000000000   2.39866530000000
Au   9.32861881926394   1.46887649954457   2.39866530000000
Au   6.78444993935550   2.93775299908914   2.39866530000000
Au   9.32861866661381   4.40662949863370   2.39866530000000
Au   11.87278754652225   5.87550599817827   2.39866530000000
Au   9.32861874293888   7.34438262992172   2.39866530000000
Au   11.87278747019719   8.81325912946629   2.39866530000000
Au   14.41695635010563   10.28213562901086   2.39866530000000
Au   11.87278747019719   11.75101212855543   2.39866530000000
Au   11.87278754652225   0.00000000000000   2.39866530000000
Au   14.41695627378056   1.46887649954457   2.39866530000000
Au   11.87278754652225   2.93775299908914   2.39866530000000
Au   14.41695627378056   4.40662949863370   2.39866530000000
Au   16.96112500103888   5.87550599817827   2.39866530000000
Au   14.41695635010563   7.34438262992172   2.39866530000000
Au   16.96112507736394   8.81325912946629   2.39866530000000
Au   19.50529380462225   10.28213562901086   2.39866530000000
Au   16.96112507736394   11.75101212855543   2.39866530000000
Au   3.39222496967775   0.00000000000000   4.78616580000000
Au   0.84805624242573   1.46887649954457   4.78616580000000
Au   3.39222496967775   2.93775299908914   4.78616580000000
Au   5.93639369693606   4.40662949863370   4.78616580000000
Au   3.39222496968740   5.87550599817827   4.78616580000000
Au   5.93639377326113   7.34438262992172   4.78616580000000
Au   8.48056250051944   8.81325912946629   4.78616580000000
Au   5.93639377330625   10.28213562901086   4.78616580000000
Au   8.48056250051944   11.75101212855543   4.78616580000000
Au   8.48056257684450   0.00000000000000   4.78616580000000
Au   5.93639369693606   1.46887649954457   4.78616580000000
Au   8.48056242419438   2.93775299908914   4.78616580000000
Au   11.02473130410281   4.40662949863370   4.78616580000000
Au   8.48056242419437   5.87550599817827   4.78616580000000
Au   11.02473122777775   7.34438262992172   4.78616580000000
Au   13.56890010768619   8.81325912946629   4.78616580000000
Au   11.02473122777775   10.28213562901086   4.78616580000000
Au   13.56889995503606   11.75101212855543   4.78616580000000
Au   13.56890003136113   0.00000000000000   4.78616580000000
Au   11.02473130410281   1.46887649954457   4.78616580000000
Au   13.56890003136113   2.93775299908914   4.78616580000000
Au   16.11306875861944   4.40662949863370   4.78616580000000
Au   13.56890003136113   5.87550599817827   4.78616580000000
Au   16.11306883494450   7.34438262992172   4.78616580000000
Au   18.65723756220282   8.81325912946629   4.78616580000000
Au   16.11306883494450   10.28213562901086   4.78616580000000
Au   18.65723756220282   11.75101212855543   4.78616580000000
Au   0.00000000000000   0.00000000000000   7.21110000000000
Au   2.54416872725831   1.46887649954457   7.21110000000000
Au   5.08833745451663   2.93775299908914   7.21110000000000
Au   2.54416872731949   4.40662949863370   7.21110000000000
Au   5.08833745451663   5.87550599817827   7.21110000000000
Au   7.63250625810000   7.34438262992172   7.21110000000000
Au   5.08833753084169   8.81325912946629   7.21110000000000
Au   7.63250625810000   10.28213562901086   7.21110000000000
Au   10.17667498535831   11.75101212855543   7.21110000000000
Au   5.08833745451662   0.00000000000000   7.21110000000000
Au   7.63250618177494   1.46887649954457   7.21110000000000
Au   10.17667506168338   2.93775299908914   7.21110000000000
Au   7.63250618177494   4.40662949863370   7.21110000000000
Au   10.17667490903325   5.87550599817827   7.21110000000000
Au   12.72084386526675   7.34438262992172   7.21110000000000
Au   10.17667498535831   8.81325912946629   7.21110000000000
Au   12.72084371261663   10.28213562901086   7.21110000000000
Au   15.26501259252506   11.75101212855543   7.21110000000000
Au   10.17667506168338   0.00000000000000   7.21110000000000
Au   12.72084378894169   1.46887649954457   7.21110000000000
Au   15.26501251620000   2.93775299908914   7.21110000000000
Au   12.72084378894169   4.40662949863370   7.21110000000000
Au   15.26501251620000   5.87550599817827   7.21110000000000
Au   17.80918131978338   7.34438262992172   7.21110000000000
Au   15.26501259252506   8.81325912946629   7.21110000000000
Au   17.80918131978338   10.28213562901086   7.21110000000000
Au   20.35335004704169   11.75101212855543   7.21110000000000
O   5.19830251142108   0.53414764359686   10.46897518888716
O   2.63259983848287   1.24062731884059   11.86186846337662
O   7.63646516053132   7.04923465760007   13.13236917151198
O   5.04103922349789   4.82032372014635   11.31011290640203
O   15.85996640715746   1.38438687609569   10.26313863889503
O   9.40242456064258   10.79932077059219   11.12003311873195
O   8.98062649164077   5.05204691214275   12.23053852565579
O   6.87268925950921   2.81856257594684   10.92818912801214
O   12.38474313939490   8.04151875267884   9.83001200671002
O   10.17421404464385   6.60062698430825   9.68306135893938
O   15.87160424790549   10.57577277988897   10.75643946934421
O   12.58984874876372   10.76152250650510   10.50141009337187
O   15.11886465349057   4.06711730585593   11.64107797939360
O   9.38600811703012   2.88490767263843   9.90017590059173
O   18.33223893789816   6.68554661412229   11.96381441224493
O   17.44359620205733   4.05151845445786   13.02731282801027
O   11.45767832172757   2.24724649323171   11.80773156033990
O   17.00826325297694   7.83585513518029   9.99961919256661
O   19.62829533845421   8.42962171036343   14.27536441683292
O   4.18315507260424   2.06843136824823   14.57413283683258
O   5.47178228528424   7.97970527447092   10.93019665075577
O   8.00290370062358   3.57472166218180   14.25218566626831
O   12.97091159724888   0.57199326924491   10.78062622988922
O   9.80798526618421   8.86277060205123   12.98721149962500
O   8.55097418285280   0.94719508203937   12.22347767237927
O   7.60359044965169   0.51400428514120   16.87553078662883
O   12.93168107672879   8.05420176289380   13.45608734129497
O   12.07602187916736   5.48846070665570   12.81328694547059
O   6.60462247527389   1.29299314946604   14.49226918554931
O   14.34494746570792   11.86672716882917   13.49013467204108
O   13.14245118908978   4.69669920618602   10.31091639332078
O   15.16351876357266   1.03099085184935   15.98418461254140
O   14.56467813386806   7.20786831445941   11.02600836409814
O   16.12739340549470   6.64202319731766   13.85381474263212
O   10.25163482246676   0.23082292245350   9.82074577140177
O   19.27767339157496   10.02287240813935   10.39550721697267
O   4.25091644988765   5.21343724170932   14.22744945069680
O   1.71566447594608   2.90478978810353   15.44584017416054
O   6.05275441554062   9.03031682087020   16.30598609513729
O   6.77097533665741   6.10149493279369   15.33949136517578
O   8.20915027098233   12.35585832027209   14.37248326216186
O   10.88732801779172   12.84116298989395   13.74553806978955
O   7.53199713926199   4.71013492581821   17.96740926270066
O   9.09580375940797   2.54551867912618   18.08609494460022
O   12.29900220429841   10.49903396342742   14.30184338840432
O   13.65286608296321   8.55019723612917   16.44343446684334
O   17.44985535316250   12.88707861204831   15.86375998242071
O   16.72185689155800   10.76755369280510   14.40267882488451
O   14.38566657264007   5.85939665843586   15.65360193066967
O   13.64596019826757   3.69639398551031   14.17193816113009
O   18.93515194417834   11.00407045538141   12.93769677405611
O   17.68657997807988   7.77735104125111   15.71345076070036
O   10.15520156457147   2.62797146560218   15.63651105367952
O   21.25608498415060   12.83190826326301   13.13948244659084
O   3.28667163846062   5.62498079178905   16.98887763946440
O   10.57432237610922   0.47561904543376   18.40816813375747
O   19.16927381726175   9.57595415673709   19.74164127287179
O   4.52274593202858   7.59639757792863   18.18878284995933
O   21.18496363658636   10.75145580781732   18.45573766853802
O   8.69293331215592   9.81456923271656   15.48487468744982
O   5.15486288923547   3.29227998774674   16.95552188738914
O   2.98501825757344   1.05605246411637   18.50391061833616
O   11.13715839581944   10.14851122806586   16.84951579520036
O   6.86828072230621   6.94540616187334   19.43507022792283
O   14.21526365577692   12.21953157066568   18.85252706524176
O   11.58552728059682   11.69156203111321   18.99780403812958
O   15.10773220467390   2.21685411481009   18.80381619006058
O   12.45362190769353   1.28155028016729   14.99571627898593
O   16.36376467992353   9.65349186665705   16.80005182405337
O   16.17590940462414   4.21299664795511   17.39636061559191
O   17.03740455467828   11.09235790635454   19.05683069509909
O   13.21362170236880   0.45363420035534   18.18703162294103
H   4.40402976742788   0.97460161228832   10.74032576306067
H   5.20450354916771   0.58410301714320   9.45884968066147
H   2.74194811982850   2.12187072843714   12.32621059821571
H   4.08550467025436   4.57556609082417   11.39592393785441
H   7.50431291515962   4.31062993311972   14.63939810287843
H   8.42847526556868   7.64660135781154   13.09025282084533
H   5.16038186108611   5.07354953189233   10.37166281061430
H   9.14321125939602   10.56319034758973   10.21959574274913
H   1.44973150442014   1.17853768572708   10.66399129235579
H   0.76167204359161   1.24130185126671   9.30871751012688
H   9.11735690006361   11.72933147957726   11.29937208461777
H   3.00460255443664   0.63035172075602   12.53867194819011
H   8.78678951793520   4.34108375511139   12.90932288500260
H   8.50543294726265   5.90442565104836   12.58378401824358
H   6.31177191882611   2.09820772812716   10.55530905607886
H   11.52170459657083   7.57257843366741   9.73309473726320
H   13.35225128472022   7.85671071590991   12.57963876441566
H   12.16919255333700   9.02008171252064   9.85688978700115
H   9.24803783267986   6.84554505642532   9.61518539529444
H   12.92194592943349   11.70701056342732   10.49471928189834
H   14.93585665635112   10.78225138230100   10.90315675704650
H   16.06105656321551   11.05437403833244   9.94427793870889
H   11.71571442565690   10.84604710265371   10.92749818401919
H   6.26588753561863   3.56465131981030   11.09221810615003
H   14.26216314714964   4.37009083357194   11.16466601621904
H   15.39702133552556   3.24499772300649   11.26521941191662
H   9.60451409882296   1.90277011245361   9.79102667595577
H   16.70738342000154   4.43835633769704   12.42476449791553
H   17.50928605800320   6.59377465703923   12.44237584237585
H   18.06292922050591   7.04473543035095   11.05138907937171
H   17.10940574128920   3.60865287375343   13.88128317400207
H   16.02093710976835   7.61489071732635   10.20222570290607
H   12.26876307883922   1.65910347337082   11.50678836575538
H   10.76963189505314   1.63816646122788   12.06199500007031
H   17.06870324192721   8.79697604829725   10.19067672758711
H   8.41130414229437   2.87859201622988   10.13396908516584
H   18.50238137226216   7.96814178201412   15.07283761347488
H   19.47018046958318   9.29679278620590   13.78210841446883
H   6.36720416105615   8.32604292951567   10.72569352473428
H   19.82677188523783   9.07960496108792   10.48101919586987
H   13.47707317920147   0.17482199773370   11.53974562388607
H   13.57842707296229   0.94512677428648   10.10343610885614
H   16.06027471814624   13.20443201529865   12.43318243592267
H   7.66688083247662   1.39905372666444   12.07806716450036
H   12.77938093373875   9.07056640208332   13.59120130965356
H   10.80398994943847   8.74625582146815   13.07673554257412
H   6.87194234659058   1.17384329438984   15.44837241407678
H   5.60809000044804   1.63113581137335   14.55365392193502
H   13.44557284774361   4.40504317372363   9.45219508162719
H   12.65367069326377   4.96023118754269   13.38450640277071
H   13.72876782788421   7.54373338329948   10.54558691102375
H   14.49030384869244   6.20424625336726   10.86570535500631
H   11.17935695960950   0.34715491894313   10.11678814616565
H   9.40440087895599   2.76660823738516   14.99188127333456
H   2.67268553420696   2.59785206376864   15.40229334646317
H   4.28808565219039   2.75280692700194   13.88667760128930
H   7.89352581367909   1.25735715707977   17.41156336522732
H   8.44070722583599   0.03749380141530   16.63571032490678
H   14.98026109504926   1.10084487144088   16.91753465057289
H   7.91440353498876   13.04854405409747   15.11227800920904
H   5.49803517761444   8.71474964349014   15.59101416114823
H   7.27825846334023   2.85039854802836   14.24883536913354
H   13.12037610971283   9.19097574438742   16.99275564809220
H   12.01102776396656   6.42512680104618   13.13434721042999
H   16.68892476978208   7.32804254521774   14.27867728410669
H   15.63936587962256   7.14711796481264   13.20360627796745
H   9.60273595601924   9.65184863771001   12.39626551608359
H   13.20201999222807   0.17264151916266   13.86593647925120
H   15.13012413875938   11.41273372478783   13.88046402063624
H   14.33268343420038   12.88670561974241   13.65357511477969
H   9.73411574814999   0.04002740634826   10.63739966312210
H   19.72290538278500   10.56879594632632   9.74393490640874
H   3.47495451689554   4.77776003058494   13.80609370026618
H   3.92098870778362   5.40716094031366   15.16937857300125
H   15.91573513757898   1.68660602895363   15.67395759708663
H   7.00741142012555   6.08683185191206   16.24739211995630
H   19.89456439925868   10.26434354657779   19.63239997646021
H   7.03048537501709   9.10961163448498   16.06148073412883
H   7.45483618212638   6.54049989716746   14.71306151099073
H   3.59122765468177   0.40503881281718   14.26919548568022
H   15.83203768951235   1.58156155926057   18.99862947426620
H   9.16900577873516   12.43939071054024   14.29116672375093
H   11.36730844102891   12.01317795834269   13.73799635526532
H   16.83758288889104   3.41462439122703   16.29278483123392
H   6.70661010617621   4.34056512159964   17.55868320049992
H   7.16425709230742   5.37053216789216   18.59669368667614
H   8.39501924745186   3.30273495474577   18.21512655493722
H   14.13841249904591   6.71365453449377   16.11154781474225
H   12.03805476141371   10.44882446507318   15.31990539842828
H   13.05201272545835   11.12640103024550   14.09581740378515
H   13.51464976646337   8.80612055162732   15.50016040841349
H   17.41442601178900   10.66307013431657   13.71908648396751
H   15.01048451757642   11.75840998689413   19.12911749641695
H   10.02754259919676   0.48869452730673   15.42009388305438
H   17.11169050095248   12.09995856030103   15.29316089565924
H   9.52057818779165   2.70508214812015   17.18544619704465
H   14.28165457500747   1.59589010914048   18.62441639406335
H   15.02136191444748   6.17938674523281   15.03459711268554
H   13.93330882837661   4.41418885571430   14.76914904866954
H   17.96244345374356   6.93342106053545   16.17410145619970
H   19.82453871211571   11.44609172695505   13.11651728883967
H   19.06300705057943   10.52370723701915   12.07402378159809
H   16.77710849451567   10.10162667376095   15.09810138455608
H   9.13294793157235   9.34548802204464   14.73745926772019
H   12.83245822731418   2.10995787485761   14.59814627073840
H   10.93555773432966   2.32936303252384   15.15220619579472
H   22.21069325402481   12.71280540689667   13.35828946897315
H   14.34202301662289   3.56048453352868   13.44776328776896
H   3.65346028683432   6.31106459256467   17.63688230971173
H   17.83079938960747   5.01110105625427   17.16067795214915
H   6.09444772949521   7.55288082898903   19.56237123023374
H   18.27265989446618   10.01368466718988   19.72888323222591
H   6.83344755639406   10.51151517691535   18.64947668577702
H   21.02905626473742   10.26395430446466   17.58317020003247
H   4.49165038010863   3.96897405617729   17.12651212553034
H   11.17130374494813   10.59314401296357   17.73946396793033
H   10.26695659756297   9.92188338271200   16.45963285468298
H   3.67457251646516   1.58910738268120   18.01171353476424
H   14.47380071842253   12.84396043664677   18.13154730187051
H   15.71214485320872   3.48991155369803   18.00793539580100
H   16.88974226569920   10.52373179876441   18.26225711300696
H   15.43980857621361   9.28108960140251   16.82929057868595
H   17.60302298476443   11.87132528345742   18.80894633981123
H   10.49543938076335   0.12438169375926   17.49096047106946
H   10.09453121651601   1.31451286726638   18.49950857944403
H   4.78493394416844   2.84691583597520   16.14658903564132
H   3.09074148864539   0.15640715458664   18.39807249029730
H   12.90642829590503   1.22098381889107   15.88789354813544
H   19.36785641351479   8.26264239536475   18.76472130949393
H   5.24057571700753   8.07501964312119   17.63412629485733
H   7.65731093762203   7.35463333003365   19.83476260414565
H   16.87387369145778   8.82678931845085   16.43295825626365
H   15.41249117452958   4.62214168468061   16.83717810218294
H   8.39962927948594   10.68608006186277   15.22956835423749
H   12.55769912278931   11.68507248651993   18.87752693144619
H   11.53420101746867   11.62086103967437   19.97505647299268
H   21.06133006904398   12.71109942472542   18.11866828766947
H   12.26935752688128   0.44983911962046   18.57662333946836
Nd   10.96949318163452   4.58560312603118   10.79169313425258
Nd   5.37019510299940   6.91123707718750   12.88964875656895
H   5.60549034897277   6.71847373321601   9.37902485879794
H   14.60185769670764   6.17144516697864   8.74151671277172
O   5.33578544450598   5.76969586038337   9.08256210000000
